Version 4
SHEET 1 1800 1364
WIRE 1088 -464 1056 -464
WIRE 1056 -432 1056 -464
WIRE 1008 -384 928 -384
WIRE 1184 -384 1120 -384
WIRE 1088 -288 1056 -288
WIRE 1056 -256 1056 -288
WIRE 480 -208 352 -208
WIRE 1008 -208 928 -208
WIRE 1184 -208 1120 -208
WIRE -368 -160 -416 -160
WIRE -352 -160 -368 -160
WIRE -80 -160 -208 -160
WIRE 288 -160 0 -160
WIRE 352 -160 352 -208
WIRE -368 -128 -368 -160
WIRE 80 -112 0 -112
WIRE 1088 -96 1056 -96
WIRE 0 -64 0 -112
WIRE 1056 -64 1056 -96
WIRE 288 -32 288 -160
WIRE 288 -32 80 -32
WIRE 352 -32 352 -80
WIRE 352 -32 288 -32
WIRE 384 -32 352 -32
WIRE 480 -32 464 -32
WIRE 624 -32 480 -32
WIRE -208 -16 -208 -160
WIRE -64 -16 -208 -16
WIRE 1008 -16 928 -16
WIRE 1184 -16 1120 -16
WIRE -368 16 -368 -48
WIRE -272 16 -368 16
WIRE -64 16 -272 16
WIRE 480 16 480 -32
WIRE -208 32 -208 -16
WIRE 144 32 80 32
WIRE -368 48 -368 16
WIRE 1088 80 1056 80
WIRE 0 112 0 64
WIRE 144 112 144 32
WIRE 480 112 480 80
WIRE 1056 112 1056 80
WIRE -368 144 -368 128
WIRE -208 144 -208 96
WIRE 1008 160 928 160
WIRE 1184 160 1120 160
WIRE -272 224 -272 16
WIRE -32 224 -272 224
WIRE 288 224 288 -32
WIRE 288 224 48 224
WIRE 1280 432 960 432
WIRE 640 464 496 464
WIRE 80 496 48 496
WIRE -720 512 -720 448
WIRE -224 512 -240 512
WIRE -224 528 -224 512
WIRE 640 528 640 464
WIRE 640 528 576 528
WIRE 704 528 640 528
WIRE 576 544 576 528
WIRE 80 560 48 560
WIRE 704 560 704 528
WIRE 1120 560 1120 512
WIRE 960 576 960 432
WIRE 1072 576 960 576
WIRE 80 608 48 608
WIRE 1280 608 1280 432
WIRE 1280 608 1184 608
WIRE 1360 608 1280 608
WIRE 1376 608 1360 608
WIRE 48 624 48 608
WIRE 912 640 864 640
WIRE 1072 640 912 640
WIRE -720 672 -720 592
WIRE 576 672 576 624
WIRE 640 672 576 672
WIRE 704 672 704 624
WIRE 704 672 640 672
WIRE 320 688 320 672
WIRE 1120 704 1120 656
WIRE 640 720 640 672
WIRE 320 784 320 752
WIRE -96 976 -96 944
WIRE 672 976 672 944
WIRE -272 1024 -288 1024
WIRE -160 1024 -192 1024
WIRE 160 1024 -48 1024
WIRE 496 1024 480 1024
WIRE 608 1024 576 1024
WIRE 928 1024 720 1024
WIRE -160 1072 -224 1072
WIRE 608 1072 544 1072
WIRE 160 1104 160 1024
WIRE 160 1104 96 1104
WIRE 224 1104 160 1104
WIRE 928 1104 928 1024
WIRE 928 1104 864 1104
WIRE 992 1104 928 1104
WIRE 96 1120 96 1104
WIRE 864 1120 864 1104
WIRE 224 1136 224 1104
WIRE 992 1136 992 1104
WIRE -96 1152 -96 1120
WIRE 672 1152 672 1120
WIRE 96 1232 96 1200
WIRE 160 1232 96 1232
WIRE 224 1232 224 1200
WIRE 224 1232 160 1232
WIRE 864 1232 864 1200
WIRE 928 1232 864 1232
WIRE 992 1232 992 1200
WIRE 992 1232 928 1232
WIRE 160 1280 160 1232
WIRE 928 1280 928 1232
FLAG -208 144 0
FLAG -368 144 0
FLAG -416 -160 Vcc
FLAG 80 -112 Vcc
FLAG 0 112 0
FLAG 144 112 0
FLAG 480 112 0
FLAG 480 -208 Vcc
FLAG 1056 -336 0
FLAG 1088 -464 Vcc
FLAG 928 -384 CLK0
FLAG 624 -32 CLK0
FLAG 1184 -384 CLK1
FLAG 1056 -160 0
FLAG 1088 -288 Vcc
FLAG 928 -208 CLK1
FLAG 1184 -208 CLK2
FLAG 1056 32 0
FLAG 1088 -96 Vcc
FLAG 928 -16 CLK2
FLAG 1184 -16 CLK3
FLAG 1056 208 0
FLAG 1088 80 Vcc
FLAG 928 160 CLK3
FLAG 1184 160 CLK4
FLAG -224 528 0
FLAG -336 384 Vdd
FLAG -336 656 Vss
FLAG 1120 704 Vss
FLAG 1120 512 Vdd
FLAG 368 368 Vdd
FLAG 432 368 Vss
FLAG 48 624 0
FLAG 48 496 sgn_in
FLAG 48 560 CLK1
FLAG 320 784 0
FLAG 640 720 0
FLAG 640 464 snh_out
FLAG 912 640 snh_out
FLAG 1360 608 snh_out_iso
FLAG -96 1152 Vss
FLAG -96 944 Vdd
FLAG -224 1072 CLK3
FLAG -288 1024 snh_out_iso
FLAG 160 1280 0
FLAG 672 1152 Vss
FLAG 672 944 Vdd
FLAG 544 1072 CLK4
FLAG 480 1024 snh_out_iso
FLAG 928 1280 0
FLAG -720 672 0
FLAG -720 448 sgn_in
FLAG 160 1024 Sample_N
FLAG 928 1024 Sample_I
DATAFLAG 80 1024 ""
DATAFLAG 80 1024 ""
DATAFLAG 848 1024 ""
DATAFLAG 848 1024 ""
SYMBOL TCLib\\Special\\74HCU04\ Not 1056 -448 R0
SYMATTR InstName U2
SYMBOL res 16 -176 R90
WINDOW 0 0 56 VBottom 2
WINDOW 3 32 56 VTop 2
SYMATTR InstName Rv
SYMATTR Value 105k
SYMBOL cap -224 32 R0
WINDOW 39 24 84 Left 2
SYMATTR SpiceLine IC=1
SYMATTR InstName C1
SYMATTR Value 2n2
SYMBOL res -384 32 R0
SYMATTR InstName R2
SYMATTR Value 18k
SYMBOL res -384 -144 R0
SYMATTR InstName R3
SYMATTR Value 18k
SYMBOL TCLib\\Vcc -368 -176 R0
SYMATTR InstName U7
SYMBOL cap 464 16 R0
SYMATTR InstName C2
SYMATTR Value 10p
SYMBOL res 336 -176 R0
SYMATTR InstName R4
SYMATTR Value 1k
SYMBOL TCLib\\Special\\74HCU04\ Not 1056 -272 R0
SYMATTR InstName U3
SYMBOL TCLib\\Special\\74HCU04\ Not 1056 -80 R0
SYMATTR InstName U4
SYMBOL TCLib\\Special\\74HCU04\ Not 1056 96 R0
SYMATTR InstName U5
SYMBOL res 480 -48 R90
WINDOW 0 0 56 VBottom 2
WINDOW 3 32 56 VTop 2
SYMATTR InstName R5
SYMATTR Value 100
SYMBOL res 64 208 R90
WINDOW 0 0 56 VBottom 2
WINDOW 3 32 56 VTop 2
SYMATTR InstName R6
SYMATTR Value 33k
SYMBOL TCLib\\supply -368 560 R0
SYMATTR InstName U8
SYMATTR Value Vp=5
SYMATTR Value2 Vn=5
SYMBOL TCLib\\TL082 1264 560 R0
SYMATTR InstName U9
SYMBOL cap 304 688 R0
SYMATTR InstName C3
SYMATTR Value 560p
SYMBOL res 560 528 R0
SYMATTR InstName R7
SYMATTR Value 10k
SYMBOL cap 688 560 R0
SYMATTR InstName C4
SYMATTR Value 1p
SYMBOL res -176 1008 R90
WINDOW 0 0 56 VBottom 2
WINDOW 3 32 56 VTop 2
SYMATTR InstName R8
SYMATTR Value 0.1
SYMBOL res 80 1104 R0
SYMATTR InstName R9
SYMATTR Value 10k
SYMBOL cap 208 1136 R0
SYMATTR InstName C5
SYMATTR Value 10p
SYMBOL res 592 1008 R90
WINDOW 0 0 56 VBottom 2
WINDOW 3 32 56 VTop 2
SYMATTR InstName R10
SYMATTR Value 0.1
SYMBOL res 848 1104 R0
SYMATTR InstName R11
SYMATTR Value 10k
SYMBOL cap 976 1136 R0
SYMATTR InstName C6
SYMATTR Value 10p
SYMBOL voltage -720 496 R0
WINDOW 123 0 0 Left 0
WINDOW 39 0 0 Left 0
SYMATTR InstName V1
SYMATTR Value SINE(0 1 1k)
SYMBOL 54HC4016 656 1040 R0
SYMATTR InstName U1
SYMBOL 54HC4016 -112 1040 R0
SYMATTR InstName U11
SYMBOL LF398H 288 528 R0
SYMATTR InstName U12
SYMBOL LM311 32 0 R0
SYMATTR InstName U6
TEXT -424 -320 Left 2 !.tran 0 2m 1m
TEXT -96 -240 Left 2 ;.step param rv 50k 150k 33k
