Version 4
SHEET 1 1896 804
WIRE 480 -176 48 -176
WIRE 48 -48 48 -176
WIRE 128 -48 48 -48
WIRE 304 -48 208 -48
WIRE 848 -48 848 -80
WIRE 1456 -32 1456 -64
WIRE 1520 -32 1520 -64
WIRE 688 32 688 -16
WIRE 160 48 160 32
WIRE 480 48 480 -176
WIRE 480 48 400 48
WIRE 640 48 480 48
WIRE -208 64 -240 64
WIRE 48 64 48 -48
WIRE 48 64 -48 64
WIRE 112 64 48 64
WIRE 1648 64 1584 64
WIRE 1776 64 1648 64
WIRE 848 80 848 32
WIRE 848 80 752 80
WIRE 880 80 848 80
WIRE -208 96 -208 64
WIRE 304 96 304 -48
WIRE 304 96 224 96
WIRE 1168 96 1120 96
WIRE 640 112 512 112
WIRE 112 128 48 128
WIRE 1776 128 1776 64
WIRE 1776 128 1712 128
WIRE 1840 128 1776 128
WIRE -48 144 -48 128
WIRE 1712 144 1712 128
WIRE 736 160 736 128
WIRE 1168 160 1120 160
WIRE 1840 160 1840 128
WIRE 160 176 160 144
WIRE 512 176 512 112
WIRE 512 176 448 176
WIRE 576 176 512 176
WIRE 688 176 688 128
WIRE 448 208 448 176
WIRE 576 208 576 176
WIRE 1168 208 1136 208
WIRE 48 224 48 128
WIRE 144 224 48 224
WIRE 304 224 304 96
WIRE 304 224 224 224
WIRE 48 240 48 224
WIRE 848 240 848 224
WIRE 1136 240 1136 208
WIRE 1712 272 1712 224
WIRE 1776 272 1712 272
WIRE 1840 272 1840 224
WIRE 1840 272 1776 272
WIRE 800 288 768 288
WIRE 944 288 912 288
WIRE 448 304 448 288
WIRE 576 304 576 288
WIRE 1776 320 1776 272
WIRE 848 352 848 336
WIRE 1408 352 1408 336
WIRE -352 448 -352 384
WIRE 848 464 848 432
WIRE 688 512 672 512
WIRE 784 512 768 512
WIRE 1024 512 896 512
WIRE 1136 512 1024 512
WIRE 784 560 672 560
WIRE -352 592 -352 528
WIRE 1136 592 1136 512
WIRE 1136 592 1072 592
WIRE 1200 592 1136 592
WIRE 1072 608 1072 592
WIRE 1200 624 1200 592
WIRE 848 640 848 608
WIRE 1072 736 1072 688
WIRE 1136 736 1072 736
WIRE 1200 736 1200 688
WIRE 1200 736 1136 736
WIRE 1136 784 1136 736
FLAG -336 -64 Vp
FLAG -336 208 Vn
FLAG -208 96 0
FLAG 576 304 Vp
FLAG 448 304 Vn
FLAG 848 -80 Vp
FLAG 688 -16 Vp
FLAG 688 176 Vn
FLAG 880 80 CLK
FLAG 736 160 0
FLAG 48 320 0
FLAG -48 144 0
FLAG 160 176 Vn
FLAG 160 32 Vp
FLAG 400 48 trian
FLAG 848 224 Vp
FLAG 848 352 0
FLAG 768 288 CLK
FLAG 944 288 nCLK
FLAG 1408 352 0
FLAG 1136 240 0
FLAG 1120 160 CLK
FLAG -352 592 0
FLAG 1120 96 sgn_in
FLAG 1456 -64 Vp
FLAG 1520 -64 Vn
FLAG 1648 64 sgn_snh
FLAG -352 384 sgn_in
FLAG 848 432 Vp
FLAG 848 640 Vn
FLAG 1024 512 sng_nat
FLAG 672 560 nCLK
FLAG 672 512 sgn_snh
FLAG 1776 320 0
FLAG 1136 784 0
SYMBOL res 432 192 R0
SYMATTR InstName R1
SYMATTR Value 3k
SYMBOL res 560 192 R0
SYMATTR InstName R69
SYMATTR Value 5k
SYMBOL TCLib\\supply -368 112 R0
SYMATTR InstName U4
SYMATTR Value Vp=5
SYMATTR Value2 Vn=5
SYMBOL TCLib\\LM311 832 32 R0
SYMATTR InstName U3
SYMBOL res 832 -64 R0
SYMATTR InstName R8
SYMATTR Value 4k7
SYMBOL TCLib\\TL082 304 48 R0
SYMATTR InstName U2
SYMBOL res 32 224 R0
SYMATTR InstName R5
SYMATTR Value 10k
SYMBOL res 240 208 R90
WINDOW 0 0 56 VBottom 2
WINDOW 3 32 56 VTop 2
SYMATTR InstName R9
SYMATTR Value 11k6
SYMBOL res 224 -64 R90
WINDOW 0 0 56 VBottom 2
WINDOW 3 32 56 VTop 2
SYMATTR InstName R10
SYMATTR Value 600
SYMBOL cap -64 64 R0
WINDOW 39 24 84 Left 2
SYMATTR InstName C2
SYMATTR Value 10n
SYMATTR SpiceLine IC=1
SYMBOL 74hc04nxp 848 224 R0
SYMATTR InstName U1
SYMBOL LF398H 1376 128 R0
SYMATTR InstName U5
SYMBOL voltage -352 432 R0
WINDOW 123 0 0 Left 0
WINDOW 39 0 0 Left 0
SYMATTR InstName V1
SYMATTR Value SINE(0 2 10k)
SYMBOL cap 1392 272 R0
SYMATTR InstName C1
SYMATTR Value 1n
SYMBOL 54HC4016 832 528 R0
SYMATTR InstName U6
SYMBOL res 784 496 R90
WINDOW 0 0 56 VBottom 2
WINDOW 3 32 56 VTop 2
SYMATTR InstName R2
SYMATTR Value 100m
SYMBOL res 1696 128 R0
SYMATTR InstName R3
SYMATTR Value 10k
SYMBOL cap 1824 160 R0
SYMATTR InstName C3
SYMATTR Value 1p
SYMBOL res 1056 592 R0
SYMATTR InstName R4
SYMATTR Value 10k
SYMBOL cap 1184 624 R0
SYMATTR InstName C4
SYMATTR Value 1p
TEXT -624 288 Left 2 !.tran 0 1m 200u 10u
TEXT -616 240 Left 2 ;.ac dec 1000 10k 100k
TEXT -80 416 Left 2 ;.step param rv 455 800 120
