Version 4
SHEET 1 3372 1660
WIRE -832 -1024 -864 -1024
WIRE -832 -992 -832 -1024
WIRE -224 -976 -512 -976
WIRE 112 -976 -160 -976
WIRE 1440 -976 1152 -976
WIRE 1776 -976 1504 -976
WIRE 2480 -944 2192 -944
WIRE 2816 -944 2544 -944
WIRE -48 -832 -48 -864
WIRE 1616 -832 1616 -864
WIRE -640 -816 -672 -816
WIRE -512 -816 -512 -976
WIRE -512 -816 -560 -816
WIRE -448 -816 -512 -816
WIRE -304 -816 -368 -816
WIRE -96 -816 -304 -816
WIRE 1152 -816 1152 -976
WIRE 1152 -816 1104 -816
WIRE 1216 -816 1152 -816
WIRE 1360 -816 1296 -816
WIRE 1568 -816 1360 -816
WIRE 688 -800 688 -832
WIRE 2656 -800 2656 -832
WIRE 112 -784 112 -976
WIRE 112 -784 16 -784
WIRE 304 -784 112 -784
WIRE 416 -784 384 -784
WIRE 640 -784 416 -784
WIRE 1776 -784 1776 -976
WIRE 1776 -784 1680 -784
WIRE 2064 -784 1776 -784
WIRE 2192 -784 2192 -944
WIRE 2192 -784 2144 -784
WIRE 2256 -784 2192 -784
WIRE 2400 -784 2336 -784
WIRE 2608 -784 2400 -784
WIRE -96 -752 -144 -752
WIRE 832 -752 752 -752
WIRE 1024 -752 1024 -816
WIRE 1024 -752 832 -752
WIRE 1568 -752 1520 -752
WIRE 2816 -752 2816 -944
WIRE 2816 -752 2720 -752
WIRE 2976 -752 2816 -752
WIRE -304 -736 -304 -816
WIRE 416 -736 416 -784
WIRE 1360 -736 1360 -816
WIRE -672 -720 -672 -816
WIRE 640 -720 624 -720
WIRE 2608 -720 2560 -720
WIRE -48 -704 -48 -736
WIRE 1616 -704 1616 -736
WIRE 2400 -704 2400 -784
WIRE 688 -672 688 -704
WIRE 2656 -672 2656 -704
WIRE -976 -640 -976 -704
WIRE -304 -640 -304 -672
WIRE 1360 -640 1360 -672
WIRE -144 -624 -144 -752
WIRE -80 -624 -144 -624
WIRE 112 -624 112 -784
WIRE 112 -624 0 -624
WIRE 416 -624 416 -656
WIRE 624 -624 624 -720
WIRE 832 -624 832 -752
WIRE 832 -624 624 -624
WIRE 1520 -624 1520 -752
WIRE 1584 -624 1520 -624
WIRE 1776 -624 1776 -784
WIRE 1776 -624 1664 -624
WIRE 2400 -608 2400 -640
WIRE 2560 -592 2560 -720
WIRE 2624 -592 2560 -592
WIRE 2816 -592 2816 -752
WIRE 2816 -592 2704 -592
WIRE -144 -512 -144 -544
WIRE 1520 -512 1520 -544
WIRE -976 -496 -976 -560
WIRE 2560 -480 2560 -512
WIRE 1200 -272 1200 -304
WIRE 1264 -272 1264 -304
WIRE -128 -240 -560 -240
WIRE 1392 -176 1328 -176
WIRE 1520 -176 1392 -176
WIRE 912 -144 864 -144
WIRE -560 -112 -560 -240
WIRE -480 -112 -560 -112
WIRE -304 -112 -400 -112
WIRE 240 -112 240 -144
WIRE 1520 -112 1520 -176
WIRE 1520 -112 1456 -112
WIRE 1584 -112 1520 -112
WIRE 1456 -96 1456 -112
WIRE 912 -80 864 -80
WIRE 1584 -80 1584 -112
WIRE 80 -32 80 -80
WIRE 912 -32 880 -32
WIRE -448 -16 -448 -32
WIRE -128 -16 -128 -240
WIRE -128 -16 -208 -16
WIRE 32 -16 -128 -16
WIRE -560 0 -560 -112
WIRE -560 0 -656 0
WIRE -496 0 -560 0
WIRE 880 0 880 -32
WIRE -656 16 -656 0
WIRE 240 16 240 -32
WIRE 240 16 144 16
WIRE 272 16 240 16
WIRE -304 32 -304 -112
WIRE -304 32 -384 32
WIRE 1456 32 1456 -16
WIRE 1520 32 1456 32
WIRE 1584 32 1584 -16
WIRE 1584 32 1520 32
WIRE 32 48 -96 48
WIRE -496 64 -560 64
WIRE 1520 80 1520 32
WIRE -656 96 -656 80
WIRE 128 96 128 64
WIRE -448 112 -448 80
WIRE -96 112 -96 48
WIRE -96 112 -160 112
WIRE -32 112 -96 112
WIRE 80 112 80 64
WIRE 1152 112 1152 96
WIRE -160 144 -160 112
WIRE -32 144 -32 112
WIRE 240 176 240 160
WIRE -560 208 -560 64
WIRE -464 208 -560 208
WIRE -304 208 -304 32
WIRE -304 208 -384 208
WIRE -560 224 -560 208
WIRE 192 224 160 224
WIRE 336 224 304 224
WIRE -160 240 -160 224
WIRE -32 240 -32 224
WIRE 240 288 240 272
WIRE 1152 288 1152 256
WIRE 992 336 976 336
WIRE 1088 336 1072 336
WIRE 1328 336 1200 336
WIRE 1440 336 1328 336
WIRE -560 352 -560 304
WIRE 1088 384 976 384
WIRE 1440 416 1440 336
WIRE 1440 416 1376 416
WIRE 1504 416 1440 416
WIRE 1376 432 1376 416
WIRE 1504 448 1504 416
WIRE 1152 464 1152 432
WIRE 1376 560 1376 512
WIRE 1440 560 1376 560
WIRE 1504 560 1504 512
WIRE 1504 560 1440 560
WIRE 1440 608 1440 560
WIRE -256 800 -544 800
WIRE 80 800 -192 800
WIRE 1408 800 1120 800
WIRE 1744 800 1472 800
WIRE 2448 832 2160 832
WIRE 2784 832 2512 832
WIRE -80 944 -80 912
WIRE 1584 944 1584 912
WIRE -672 960 -704 960
WIRE -544 960 -544 800
WIRE -544 960 -592 960
WIRE -480 960 -544 960
WIRE -336 960 -400 960
WIRE -128 960 -336 960
WIRE 1120 960 1120 800
WIRE 1120 960 1072 960
WIRE 1184 960 1120 960
WIRE 1328 960 1264 960
WIRE 1536 960 1328 960
WIRE 656 976 656 944
WIRE 2624 976 2624 944
WIRE 80 992 80 800
WIRE 80 992 -16 992
WIRE 272 992 80 992
WIRE 384 992 352 992
WIRE 608 992 384 992
WIRE 1744 992 1744 800
WIRE 1744 992 1648 992
WIRE 2032 992 1744 992
WIRE 2160 992 2160 832
WIRE 2160 992 2112 992
WIRE 2224 992 2160 992
WIRE 2368 992 2304 992
WIRE 2576 992 2368 992
WIRE -128 1024 -176 1024
WIRE 800 1024 720 1024
WIRE 992 1024 992 960
WIRE 992 1024 800 1024
WIRE 1536 1024 1488 1024
WIRE 2784 1024 2784 832
WIRE 2784 1024 2688 1024
WIRE 2944 1024 2784 1024
WIRE -336 1040 -336 960
WIRE 384 1040 384 992
WIRE 1328 1040 1328 960
WIRE -704 1056 -704 960
WIRE 608 1056 592 1056
WIRE 2576 1056 2528 1056
WIRE -80 1072 -80 1040
WIRE 1584 1072 1584 1040
WIRE 2368 1072 2368 992
WIRE 656 1104 656 1072
WIRE 2624 1104 2624 1072
WIRE -336 1136 -336 1104
WIRE 1328 1136 1328 1104
WIRE -176 1152 -176 1024
WIRE -112 1152 -176 1152
WIRE 80 1152 80 992
WIRE 80 1152 -32 1152
WIRE 384 1152 384 1120
WIRE 592 1152 592 1056
WIRE 800 1152 800 1024
WIRE 800 1152 592 1152
WIRE 1488 1152 1488 1024
WIRE 1552 1152 1488 1152
WIRE 1744 1152 1744 992
WIRE 1744 1152 1632 1152
WIRE 2368 1168 2368 1136
WIRE 2528 1184 2528 1056
WIRE 2592 1184 2528 1184
WIRE 2784 1184 2784 1024
WIRE 2784 1184 2672 1184
WIRE -176 1264 -176 1232
WIRE 1488 1264 1488 1232
WIRE 2528 1296 2528 1264
FLAG -960 -1152 Vp
FLAG -960 -880 Vn
FLAG -832 -992 0
FLAG -32 240 Vp
FLAG -160 240 Vn
FLAG 240 -144 Vp
FLAG 80 -80 Vp
FLAG 80 112 Vn
FLAG 272 16 CLK
FLAG 128 96 0
FLAG -448 112 Vn
FLAG -448 -32 Vp
FLAG -208 -16 trian
FLAG 240 160 Vp
FLAG 240 288 0
FLAG 160 224 CLK
FLAG 336 224 nCLK
FLAG 1152 112 0
FLAG 880 0 0
FLAG 864 -80 CLK
FLAG -976 -496 0
FLAG 864 -144 sgn_faa
FLAG 1200 -304 Vp
FLAG 1264 -304 Vn
FLAG 1392 -176 sgn_snh
FLAG -976 -704 sgn_in
FLAG 1152 256 Vp
FLAG 1152 464 Vn
FLAG 1328 336 sgn_nat
FLAG 976 384 nCLK
FLAG 976 336 sgn_snh
FLAG 1520 80 0
FLAG 1440 608 0
FLAG -144 -512 0
FLAG -304 -640 0
FLAG 1520 -512 0
FLAG 1360 -640 0
FLAG 2560 -480 0
FLAG 2400 -608 0
FLAG -48 -864 Vn
FLAG 1616 -864 Vn
FLAG 2656 -832 Vn
FLAG -48 -704 Vp
FLAG 1616 -704 Vp
FLAG 2656 -672 Vp
FLAG -656 96 0
FLAG -672 -720 sgn_in
FLAG -560 352 0
FLAG 416 -624 0
FLAG 688 -832 Vn
FLAG 688 -672 Vp
FLAG 2976 -752 sgn_faa
FLAG -176 1264 0
FLAG -336 1136 0
FLAG 1488 1264 0
FLAG 1328 1136 0
FLAG 2528 1296 0
FLAG 2368 1168 0
FLAG -80 912 Vn
FLAG 1584 912 Vn
FLAG 2624 944 Vn
FLAG -80 1072 Vp
FLAG 1584 1072 Vp
FLAG 2624 1104 Vp
FLAG 384 1152 0
FLAG 656 944 Vn
FLAG 656 1104 Vp
FLAG 2944 1024 sgn_recup
FLAG -704 1056 sgn_nat
SYMBOL res -176 128 R0
SYMATTR InstName R1
SYMATTR Value 3k
SYMBOL res -48 128 R0
SYMATTR InstName R69
SYMATTR Value 5k
SYMBOL TCLib\\supply -992 -976 R0
SYMATTR InstName U4
SYMATTR Value Vp=5
SYMATTR Value2 Vn=5
SYMBOL TCLib\\LM311 224 -32 R0
SYMATTR InstName U3
SYMBOL res 224 -128 R0
SYMATTR InstName R8
SYMATTR Value 4k7
SYMBOL TCLib\\TL082 -304 -16 R0
SYMATTR InstName U2
SYMBOL res -576 208 R0
SYMATTR InstName R5
SYMATTR Value 10k
SYMBOL res -368 192 R90
WINDOW 0 0 56 VBottom 2
WINDOW 3 32 56 VTop 2
SYMATTR InstName R9
SYMATTR Value 11k6
SYMBOL res -384 -128 R90
WINDOW 0 0 56 VBottom 2
WINDOW 3 32 56 VTop 2
SYMATTR InstName R10
SYMATTR Value 400
SYMBOL 74hc04nxp 240 160 R0
SYMATTR InstName U1
SYMBOL LF398H 1120 -112 R0
SYMATTR InstName U5
SYMBOL voltage -976 -656 R0
WINDOW 123 0 0 Left 0
WINDOW 39 0 0 Left 0
SYMATTR InstName V1
SYMATTR Value SINE(0 1 10k)
SYMBOL cap 1136 32 R0
SYMATTR InstName C1
SYMATTR Value 1n
SYMBOL 54HC4016 1136 352 R0
SYMATTR InstName U6
SYMBOL res 1088 320 R90
WINDOW 0 0 56 VBottom 2
WINDOW 3 32 56 VTop 2
SYMATTR InstName R2
SYMATTR Value 100m
SYMBOL res 1440 -112 R0
SYMATTR InstName R3
SYMATTR Value 10k
SYMBOL cap 1568 -80 R0
SYMATTR InstName C3
SYMATTR Value 1p
SYMBOL res 1360 416 R0
SYMATTR InstName R4
SYMATTR Value 10k
SYMBOL cap 1488 448 R0
SYMATTR InstName C4
SYMATTR Value 1p
SYMBOL res -544 -832 R90
WINDOW 0 0 56 VBottom 2
WINDOW 3 32 56 VTop 2
SYMATTR InstName R6
SYMATTR Value 494
SYMBOL res -352 -832 R90
WINDOW 0 0 56 VBottom 2
WINDOW 3 32 56 VTop 2
SYMATTR InstName R7
SYMATTR Value 494
SYMBOL cap -160 -992 R90
WINDOW 0 0 32 VBottom 2
WINDOW 3 32 32 VTop 2
SYMATTR InstName C5
SYMATTR Value 10n
SYMBOL cap -288 -672 R180
WINDOW 0 24 56 Left 2
WINDOW 3 24 8 Left 2
SYMATTR InstName C6
SYMATTR Value 10n
SYMBOL TCLib\\TL082 96 -736 M180
SYMATTR InstName U7
SYMBOL res 16 -640 R90
WINDOW 0 0 56 VBottom 2
WINDOW 3 32 56 VTop 2
SYMATTR InstName Ra1
SYMATTR Value 17k
SYMBOL res -128 -528 R180
WINDOW 0 36 76 Left 2
WINDOW 3 36 40 Left 2
SYMATTR InstName Rb1
SYMATTR Value 10k
SYMBOL res 1120 -832 R90
WINDOW 0 0 56 VBottom 2
WINDOW 3 32 56 VTop 2
SYMATTR InstName R11
SYMATTR Value 600
SYMBOL res 1312 -832 R90
WINDOW 0 0 56 VBottom 2
WINDOW 3 32 56 VTop 2
SYMATTR InstName R12
SYMATTR Value 600
SYMBOL cap 1504 -992 R90
WINDOW 0 0 32 VBottom 2
WINDOW 3 32 32 VTop 2
SYMATTR InstName C7
SYMATTR Value 10n
SYMBOL cap 1376 -672 R180
WINDOW 0 24 56 Left 2
WINDOW 3 24 8 Left 2
SYMATTR InstName C8
SYMATTR Value 10n
SYMBOL TCLib\\TL082 1760 -736 M180
SYMATTR InstName U8
SYMBOL res 1680 -640 R90
WINDOW 0 0 56 VBottom 2
WINDOW 3 32 56 VTop 2
SYMATTR InstName Ra2
SYMATTR Value 10k
SYMBOL res 1536 -528 R180
WINDOW 0 36 76 Left 2
WINDOW 3 36 40 Left 2
SYMATTR InstName Rb2
SYMATTR Value 10k
SYMBOL res 2160 -800 R90
WINDOW 0 0 56 VBottom 2
WINDOW 3 32 56 VTop 2
SYMATTR InstName R13
SYMATTR Value 761
SYMBOL res 2352 -800 R90
WINDOW 0 0 56 VBottom 2
WINDOW 3 32 56 VTop 2
SYMATTR InstName R14
SYMATTR Value 761
SYMBOL cap 2544 -960 R90
WINDOW 0 0 32 VBottom 2
WINDOW 3 32 32 VTop 2
SYMATTR InstName C9
SYMATTR Value 10n
SYMBOL cap 2416 -640 R180
WINDOW 0 24 56 Left 2
WINDOW 3 24 8 Left 2
SYMATTR InstName C10
SYMATTR Value 10n
SYMBOL TCLib\\TL082 2800 -704 M180
SYMATTR InstName U10
SYMBOL res 2720 -608 R90
WINDOW 0 0 56 VBottom 2
WINDOW 3 32 56 VTop 2
SYMATTR InstName Ra3
SYMATTR Value 10k
SYMBOL res 2576 -496 R180
WINDOW 0 36 76 Left 2
WINDOW 3 36 40 Left 2
SYMATTR InstName Rb3
SYMATTR Value 55k
SYMBOL cap -672 16 R0
WINDOW 39 24 84 Left 2
SYMATTR SpiceLine IC=1
SYMATTR InstName C2
SYMATTR Value 10n
SYMBOL res 400 -800 R90
WINDOW 0 0 56 VBottom 2
WINDOW 3 32 56 VTop 2
SYMATTR InstName R17
SYMATTR Value 5k3
SYMBOL res 432 -640 R180
WINDOW 0 36 76 Left 2
WINDOW 3 36 40 Left 2
SYMATTR InstName R18
SYMATTR Value 1k
SYMBOL TCLib\\TL082 832 -704 M180
SYMATTR InstName U9
SYMBOL res -576 944 R90
WINDOW 0 0 56 VBottom 2
WINDOW 3 32 56 VTop 2
SYMATTR InstName R15
SYMATTR Value 494
SYMBOL res -384 944 R90
WINDOW 0 0 56 VBottom 2
WINDOW 3 32 56 VTop 2
SYMATTR InstName R16
SYMATTR Value 494
SYMBOL cap -192 784 R90
WINDOW 0 0 32 VBottom 2
WINDOW 3 32 32 VTop 2
SYMATTR InstName C11
SYMATTR Value 10n
SYMBOL cap -320 1104 R180
WINDOW 0 24 56 Left 2
WINDOW 3 24 8 Left 2
SYMATTR InstName C12
SYMATTR Value 10n
SYMBOL TCLib\\TL082 64 1040 M180
SYMATTR InstName U11
SYMBOL res -16 1136 R90
WINDOW 0 0 56 VBottom 2
WINDOW 3 32 56 VTop 2
SYMATTR InstName Ra4
SYMATTR Value 17k
SYMBOL res -160 1248 R180
WINDOW 0 36 76 Left 2
WINDOW 3 36 40 Left 2
SYMATTR InstName Rb4
SYMATTR Value 10k
SYMBOL res 1088 944 R90
WINDOW 0 0 56 VBottom 2
WINDOW 3 32 56 VTop 2
SYMATTR InstName R19
SYMATTR Value 600
SYMBOL res 1280 944 R90
WINDOW 0 0 56 VBottom 2
WINDOW 3 32 56 VTop 2
SYMATTR InstName R20
SYMATTR Value 600
SYMBOL cap 1472 784 R90
WINDOW 0 0 32 VBottom 2
WINDOW 3 32 32 VTop 2
SYMATTR InstName C13
SYMATTR Value 10n
SYMBOL cap 1344 1104 R180
WINDOW 0 24 56 Left 2
WINDOW 3 24 8 Left 2
SYMATTR InstName C14
SYMATTR Value 10n
SYMBOL TCLib\\TL082 1728 1040 M180
SYMATTR InstName U12
SYMBOL res 1648 1136 R90
WINDOW 0 0 56 VBottom 2
WINDOW 3 32 56 VTop 2
SYMATTR InstName Ra5
SYMATTR Value 10k
SYMBOL res 1504 1248 R180
WINDOW 0 36 76 Left 2
WINDOW 3 36 40 Left 2
SYMATTR InstName Rb5
SYMATTR Value 10k
SYMBOL res 2128 976 R90
WINDOW 0 0 56 VBottom 2
WINDOW 3 32 56 VTop 2
SYMATTR InstName R21
SYMATTR Value 761
SYMBOL res 2320 976 R90
WINDOW 0 0 56 VBottom 2
WINDOW 3 32 56 VTop 2
SYMATTR InstName R22
SYMATTR Value 761
SYMBOL cap 2512 816 R90
WINDOW 0 0 32 VBottom 2
WINDOW 3 32 32 VTop 2
SYMATTR InstName C15
SYMATTR Value 10n
SYMBOL cap 2384 1136 R180
WINDOW 0 24 56 Left 2
WINDOW 3 24 8 Left 2
SYMATTR InstName C16
SYMATTR Value 10n
SYMBOL TCLib\\TL082 2768 1072 M180
SYMATTR InstName U13
SYMBOL res 2688 1168 R90
WINDOW 0 0 56 VBottom 2
WINDOW 3 32 56 VTop 2
SYMATTR InstName Ra6
SYMATTR Value 10k
SYMBOL res 2544 1280 R180
WINDOW 0 36 76 Left 2
WINDOW 3 36 40 Left 2
SYMATTR InstName Rb6
SYMATTR Value 55k
SYMBOL res 368 976 R90
WINDOW 0 0 56 VBottom 2
WINDOW 3 32 56 VTop 2
SYMATTR InstName R23
SYMATTR Value 5k3
SYMBOL res 400 1136 R180
WINDOW 0 36 76 Left 2
WINDOW 3 36 40 Left 2
SYMATTR InstName R24
SYMATTR Value 1k
SYMBOL TCLib\\TL082 800 1072 M180
SYMATTR InstName U14
TEXT -1080 -224 Left 2 !.tran 0 1m 200u 10u
TEXT -1072 -272 Left 2 ;.ac dec 1000 10k 100k
TEXT -1072 -320 Left 2 ;.step param rv 455 800 120
TEXT -608 -1048 Left 2 ;f0=32k
TEXT 1032 -1048 Left 2 ;f0=26k
TEXT 2016 -1056 Left 2 ;f0=20k
TEXT -416 -184 Left 2 ;T = R10 * C2
TEXT -640 728 Left 2 ;f0=32k
TEXT 1000 728 Left 2 ;f0=26k
TEXT 1984 720 Left 2 ;f0=20k
RECTANGLE Normal 176 -448 -720 -1104 2
RECTANGLE Normal 1872 -448 976 -1104 2
RECTANGLE Normal 2896 -432 1968 -1104 2
RECTANGLE Normal 144 1328 -752 672 2
RECTANGLE Normal 1840 1328 944 672 2
RECTANGLE Normal 2864 1344 1936 672 2
