Version 4
SHEET 1 1848 680
WIRE -704 -1488 -992 -1488
WIRE -368 -1488 -640 -1488
WIRE 224 -1488 -64 -1488
WIRE 560 -1488 288 -1488
WIRE -1120 -1328 -1424 -1328
WIRE -992 -1328 -992 -1488
WIRE -992 -1328 -1040 -1328
WIRE -928 -1328 -992 -1328
WIRE -784 -1328 -848 -1328
WIRE -576 -1328 -784 -1328
WIRE -192 -1328 -256 -1328
WIRE -64 -1328 -64 -1488
WIRE -64 -1328 -112 -1328
WIRE 0 -1328 -64 -1328
WIRE 144 -1328 80 -1328
WIRE 352 -1328 144 -1328
WIRE -368 -1296 -368 -1488
WIRE -368 -1296 -464 -1296
WIRE -256 -1296 -256 -1328
WIRE -256 -1296 -368 -1296
WIRE 560 -1296 560 -1488
WIRE 560 -1296 464 -1296
WIRE 848 -1296 560 -1296
WIRE 976 -1296 928 -1296
WIRE 1072 -1296 976 -1296
WIRE -576 -1264 -624 -1264
WIRE 352 -1264 304 -1264
WIRE -784 -1248 -784 -1328
WIRE 144 -1248 144 -1328
WIRE 976 -1248 976 -1296
WIRE -1424 -1200 -1424 -1328
WIRE -784 -1152 -784 -1184
WIRE 144 -1152 144 -1184
WIRE -624 -1136 -624 -1264
WIRE -560 -1136 -624 -1136
WIRE -368 -1136 -368 -1296
WIRE -368 -1136 -480 -1136
WIRE 304 -1136 304 -1264
WIRE 368 -1136 304 -1136
WIRE 560 -1136 560 -1296
WIRE 560 -1136 448 -1136
WIRE 976 -1120 976 -1184
WIRE -624 -1024 -624 -1056
WIRE 304 -1024 304 -1056
WIRE -160 -672 -272 -672
WIRE 16 -672 -80 -672
WIRE 1744 -656 1616 -656
WIRE -688 -624 -784 -624
WIRE -608 -624 -688 -624
WIRE -432 -624 -528 -624
WIRE 1200 -624 1152 -624
WIRE 1744 -608 1744 -656
WIRE 1744 -608 1680 -608
WIRE 1808 -608 1744 -608
WIRE -272 -592 -272 -672
WIRE -160 -592 -272 -592
WIRE 16 -592 16 -672
WIRE 16 -592 -96 -592
WIRE 1680 -576 1680 -608
WIRE 1808 -576 1808 -608
WIRE -784 -560 -784 -624
WIRE 1200 -560 1152 -560
WIRE 528 -512 528 -544
WIRE 1200 -512 1152 -512
WIRE -576 -496 -576 -528
WIRE -784 -480 -784 -496
WIRE -688 -480 -688 -624
WIRE -624 -480 -688 -480
WIRE -128 -464 -128 -512
WIRE 1680 -464 1680 -496
WIRE 1744 -464 1680 -464
WIRE 1808 -464 1808 -512
WIRE 1808 -464 1744 -464
WIRE -432 -448 -432 -624
WIRE -432 -448 -512 -448
WIRE -384 -448 -432 -448
WIRE -272 -448 -272 -592
WIRE -272 -448 -304 -448
WIRE -176 -448 -272 -448
WIRE 368 -432 368 -480
WIRE -624 -416 -688 -416
WIRE 16 -416 16 -592
WIRE 16 -416 -64 -416
WIRE 320 -416 16 -416
WIRE 1744 -416 1744 -464
WIRE -176 -384 -272 -384
WIRE 528 -384 528 -432
WIRE 528 -384 432 -384
WIRE 560 -384 528 -384
WIRE 1440 -368 1440 -384
WIRE -576 -352 -576 -400
WIRE 320 -352 192 -352
WIRE -272 -320 -272 -384
WIRE -128 -320 -128 -368
WIRE 416 -304 416 -336
WIRE 192 -288 192 -352
WIRE 192 -288 128 -288
WIRE 256 -288 192 -288
WIRE 368 -288 368 -336
WIRE -688 -256 -688 -416
WIRE -608 -256 -688 -256
WIRE -432 -256 -432 -448
WIRE -432 -256 -528 -256
WIRE 128 -256 128 -288
WIRE 256 -256 256 -288
WIRE -688 -240 -688 -256
WIRE 1440 -240 1440 -256
WIRE 480 -192 448 -192
WIRE 624 -192 592 -192
WIRE 1376 -192 1184 -192
WIRE 1712 -192 1488 -192
WIRE 128 -160 128 -176
WIRE 256 -160 256 -176
WIRE -688 -144 -688 -160
WIRE 1376 -144 1184 -144
WIRE 1712 -144 1712 -192
WIRE 1712 -144 1648 -144
WIRE 1776 -144 1712 -144
WIRE 1648 -112 1648 -144
WIRE 1776 -112 1776 -144
WIRE 1440 -80 1440 -96
WIRE -384 0 -416 0
WIRE 1648 0 1648 -32
WIRE 1712 0 1648 0
WIRE 1776 0 1776 -48
WIRE 1776 0 1712 0
WIRE -384 32 -384 0
WIRE 1712 48 1712 0
FLAG -272 -320 0
FLAG -688 -144 0
FLAG -784 -480 0
FLAG -512 -128 Vp
FLAG -512 144 Vn
FLAG -384 32 0
FLAG -128 -320 Vn
FLAG -128 -512 Vp
FLAG -576 -528 Vp
FLAG -576 -352 Vn
FLAG 256 -160 Vp
FLAG 128 -160 Vn
FLAG 528 -544 Vp
FLAG 368 -480 Vp
FLAG 368 -288 Vn
FLAG 560 -384 CLK
FLAG 416 -304 0
FLAG -1424 -1120 0
FLAG -624 -1024 0
FLAG -784 -1152 0
FLAG -528 -1248 Vp
FLAG -528 -1344 Vn
FLAG 304 -1024 0
FLAG 144 -1152 0
FLAG 400 -1248 Vp
FLAG 400 -1344 Vn
FLAG 976 -1120 0
FLAG 1072 -1296 sng_in
FLAG 1440 -368 0
FLAG 1152 -512 0
FLAG 1152 -560 CLK
FLAG 1152 -624 sng_in
FLAG 1552 -752 Vn
FLAG 1488 -752 Vp
FLAG 1744 -416 0
FLAG 528 -144 0
FLAG 528 -240 Vp
FLAG 448 -192 CLK
FLAG 624 -192 nCLK
FLAG 1712 48 0
FLAG 1744 -656 sgn_SnH
FLAG 1184 -192 sgn_SnH
FLAG 1184 -144 nCLK
FLAG 1440 -80 Vn
FLAG 1440 -256 Vp
SYMBOL TCLib\\TL082 16 -464 R0
SYMATTR InstName U2
SYMBOL res 112 -272 R0
SYMATTR InstName R1
SYMATTR Value 10k
SYMBOL res 240 -272 R0
SYMATTR InstName R2
SYMATTR Value 10k
SYMBOL cap -800 -560 R0
WINDOW 39 24 36 Left 2
SYMATTR InstName C1
SYMATTR Value 10n
SYMBOL res -704 -256 R0
SYMATTR InstName R3
SYMATTR Value 10k
SYMBOL res -512 -272 R90
WINDOW 0 0 56 VBottom 2
WINDOW 3 32 56 VTop 2
SYMATTR InstName R4
SYMATTR Value 11k6
SYMBOL res -512 -640 R90
WINDOW 0 0 56 VBottom 2
WINDOW 3 32 56 VTop 2
SYMATTR InstName R5
SYMATTR Value 5k
SYMBOL res -64 -688 R90
WINDOW 0 0 56 VBottom 2
WINDOW 3 32 56 VTop 2
SYMATTR InstName R6
SYMATTR Value 500k
SYMBOL res -288 -464 R90
WINDOW 0 0 56 VBottom 2
WINDOW 3 32 56 VTop 2
SYMATTR InstName R7
SYMATTR Value 1k
SYMBOL TCLib\\supply -544 48 R0
SYMATTR InstName U4
SYMATTR Value Vp=6
SYMATTR Value2 Vn=6
SYMBOL cap -96 -608 R90
WINDOW 0 0 32 VBottom 2
WINDOW 3 32 32 VTop 2
SYMATTR InstName C2
SYMATTR Value 10n
SYMBOL TCLib\\LM311 512 -432 R0
SYMATTR InstName U3
SYMBOL res 512 -528 R0
SYMATTR InstName R8
SYMATTR Value 4k7
SYMBOL TCLib\\TL082 -432 -496 R0
SYMATTR InstName U1
SYMBOL voltage -1424 -1216 R0
WINDOW 123 24 124 Left 2
WINDOW 39 0 0 Left 0
WINDOW 3 24 152 Left 2
SYMATTR Value2 AC 1
SYMATTR InstName V1
SYMATTR Value SINE(0 2 1k)
SYMBOL res -1024 -1344 R90
WINDOW 0 0 56 VBottom 2
WINDOW 3 32 56 VTop 2
SYMATTR InstName R9
SYMATTR Value 10k
SYMBOL res -832 -1344 R90
WINDOW 0 0 56 VBottom 2
WINDOW 3 32 56 VTop 2
SYMATTR InstName R10
SYMATTR Value 6250
SYMBOL cap -640 -1504 R90
WINDOW 0 0 32 VBottom 2
WINDOW 3 32 32 VTop 2
SYMATTR InstName C3
SYMATTR Value 1n
SYMBOL cap -768 -1184 R180
WINDOW 0 24 56 Left 2
WINDOW 3 24 8 Left 2
SYMATTR InstName C4
SYMATTR Value 1n
SYMBOL TCLib\\TL082 -384 -1248 M180
SYMATTR InstName U5
SYMBOL res -464 -1152 R90
WINDOW 0 0 56 VBottom 2
WINDOW 3 32 56 VTop 2
SYMATTR InstName Ra1
SYMATTR Value 10k
SYMBOL res -608 -1040 R180
WINDOW 0 36 76 Left 2
WINDOW 3 36 40 Left 2
SYMATTR InstName Rb1
SYMATTR Value 1Meg
SYMBOL res -96 -1344 R90
WINDOW 0 0 56 VBottom 2
WINDOW 3 32 56 VTop 2
SYMATTR InstName R11
SYMATTR Value 10k
SYMBOL res 96 -1344 R90
WINDOW 0 0 56 VBottom 2
WINDOW 3 32 56 VTop 2
SYMATTR InstName R12
SYMATTR Value 2473
SYMBOL cap 288 -1504 R90
WINDOW 0 0 32 VBottom 2
WINDOW 3 32 32 VTop 2
SYMATTR InstName C5
SYMATTR Value 1n
SYMBOL cap 160 -1184 R180
WINDOW 0 24 56 Left 2
WINDOW 3 24 8 Left 2
SYMATTR InstName C6
SYMATTR Value 1n
SYMBOL TCLib\\TL082 544 -1248 M180
SYMATTR InstName U6
SYMBOL res 464 -1152 R90
WINDOW 0 0 56 VBottom 2
WINDOW 3 32 56 VTop 2
SYMATTR InstName Ra2
SYMATTR Value 10k
SYMBOL res 320 -1040 R180
WINDOW 0 36 76 Left 2
WINDOW 3 36 40 Left 2
SYMATTR InstName Rb2
SYMATTR Value 1Meg
SYMBOL res 832 -1280 R270
WINDOW 0 32 56 VTop 2
WINDOW 3 0 56 VBottom 2
SYMATTR InstName R13
SYMATTR Value 18k
SYMBOL cap 960 -1248 R0
SYMATTR InstName C7
SYMATTR Value 1n
SYMBOL LF398H 1408 -592 R0
SYMATTR InstName U7
SYMBOL cap 1424 -448 R0
SYMATTR InstName C8
SYMATTR Value 560p
SYMBOL res 1664 -592 R0
SYMATTR InstName R14
SYMATTR Value 10k
SYMBOL cap 1792 -576 R0
SYMATTR InstName C9
SYMATTR Value 1p
SYMBOL 54HC4016 1424 -176 R0
SYMATTR InstName U8
SYMBOL 74hc04nxp 528 -256 R0
SYMATTR InstName U9
SYMBOL res 1632 -128 R0
SYMATTR InstName R15
SYMATTR Value 10k
SYMBOL cap 1760 -112 R0
SYMATTR InstName C10
SYMATTR Value 1p
TEXT -800 224 Left 2 !.tran 0 2m 0 10u
RECTANGLE Normal -304 -960 -1200 -1616 2
RECTANGLE Normal 656 -960 -240 -1616 2
RECTANGLE Normal 1040 -960 704 -1616 2
