Version 4
SHEET 1 880 796
WIRE 160 -160 -272 -160
WIRE -16 -80 -64 -80
WIRE -272 -32 -272 -160
WIRE -224 -32 -272 -32
WIRE -112 -32 -144 -32
WIRE -16 -32 -16 -80
WIRE -16 -32 -32 -32
WIRE 528 -32 528 -64
WIRE 368 48 368 0
WIRE -160 64 -160 48
WIRE 160 64 160 -160
WIRE 320 64 160 64
WIRE -272 80 -272 -32
WIRE -272 80 -368 80
WIRE -208 80 -272 80
WIRE -816 96 -848 96
WIRE 528 96 528 48
WIRE 528 96 432 96
WIRE 560 96 528 96
WIRE -368 112 -368 80
WIRE -16 112 -16 -32
WIRE -16 112 -96 112
WIRE -816 128 -816 96
WIRE 320 128 192 128
WIRE -208 144 -272 144
WIRE 528 160 528 96
WIRE 528 160 464 160
WIRE 624 160 528 160
WIRE 416 176 416 144
WIRE 464 176 464 160
WIRE -160 192 -160 160
WIRE 128 192 48 192
WIRE 192 192 192 128
WIRE 192 192 128 192
WIRE 256 192 192 192
WIRE 368 192 368 144
WIRE 624 192 624 160
WIRE -368 208 -368 176
WIRE 48 224 48 192
WIRE 128 224 128 192
WIRE 256 256 256 192
WIRE -272 288 -272 144
WIRE -176 288 -272 288
WIRE -16 288 -16 112
WIRE -16 288 -96 288
WIRE 464 288 464 256
WIRE 544 288 464 288
WIRE 624 288 624 256
WIRE 624 288 544 288
WIRE 128 320 128 304
WIRE 544 320 544 288
WIRE 48 336 48 288
WIRE -272 352 -272 288
WIRE 256 352 256 336
WIRE 304 352 304 304
WIRE 304 352 256 352
WIRE 256 384 256 352
WIRE -272 480 -272 432
FLAG 256 384 Vp
FLAG 128 320 Vn
FLAG 528 -64 Vp
FLAG 368 0 Vp
FLAG 368 192 Vn
FLAG 560 96 CLK
FLAG 416 176 0
FLAG -160 192 Vn
FLAG -160 48 Vp
FLAG -368 208 0
FLAG -272 480 0
FLAG -944 -32 Vp
FLAG -944 240 Vn
FLAG -816 128 0
FLAG 544 320 0
FLAG 48 336 0
SYMBOL res 112 208 R0
SYMATTR InstName R2
SYMATTR Value 220
SYMBOL TCLib\\LM311 512 48 R0
SYMATTR InstName U1
SYMBOL res 512 -48 R0
SYMATTR InstName R4
SYMATTR Value 470
SYMBOL TCLib\\TL082 -16 64 R0
SYMATTR InstName U2
SYMBOL res -288 336 R0
SYMATTR InstName R90
SYMATTR Value 10k
SYMBOL res -80 272 R90
WINDOW 0 0 56 VBottom 2
WINDOW 3 32 56 VTop 2
SYMATTR InstName R10
SYMATTR Value 10k
SYMBOL cap -384 112 R0
WINDOW 39 24 84 Left 2
SYMATTR InstName C1
SYMATTR Value 1n
SYMBOL TCLib\\supply -976 144 R0
SYMATTR InstName U3
SYMATTR Value Vp=5
SYMATTR Value2 Vn=5
SYMBOL TCLib\\pot 240 240 R0
SYMATTR InstName U4
SYMATTR Value R=1K
SYMATTR Value2 cur=.6
SYMBOL res -128 -48 R90
WINDOW 0 0 56 VBottom 2
WINDOW 3 32 56 VTop 2
SYMATTR InstName R1
SYMATTR Value 220
SYMBOL cap 608 192 R0
SYMATTR InstName C2
SYMATTR Value 100p
SYMBOL res 448 160 R0
SYMATTR InstName R3
SYMATTR Value 1k
SYMBOL res -16 -48 R90
WINDOW 0 0 56 VBottom 2
WINDOW 3 32 56 VTop 2
SYMATTR InstName R5
SYMATTR Value 20k
SYMBOL cap 32 224 R0
SYMATTR InstName C3
SYMATTR Value 1µ
TEXT -256 640 Left 2 ;.step dec param rv 3k2 31k 2
TEXT -240 704 Left 2 !.tran 0 100u 20u
RECTANGLE Normal 848 544 -608 -224 2
