Version 4
SHEET 1 880 796
WIRE 160 -160 -272 -160
WIRE -272 -32 -272 -160
WIRE -160 -32 -272 -32
WIRE -16 -32 -80 -32
WIRE 528 -32 528 -64
WIRE 368 48 368 0
WIRE -160 64 -160 48
WIRE 160 64 160 -160
WIRE 320 64 160 64
WIRE -272 80 -272 -32
WIRE -272 80 -368 80
WIRE -208 80 -272 80
WIRE -816 96 -848 96
WIRE 528 96 528 48
WIRE 528 96 432 96
WIRE 560 96 528 96
WIRE -368 112 -368 80
WIRE -16 112 -16 -32
WIRE -16 112 -96 112
WIRE -816 128 -816 96
WIRE 320 128 192 128
WIRE -208 144 -272 144
WIRE 416 176 416 144
WIRE -160 192 -160 160
WIRE 192 192 192 128
WIRE 192 192 128 192
WIRE 256 192 192 192
WIRE 368 192 368 144
WIRE -368 208 -368 176
WIRE 128 224 128 192
WIRE 256 224 256 192
WIRE -272 288 -272 144
WIRE -176 288 -272 288
WIRE -16 288 -16 112
WIRE -16 288 -96 288
WIRE 128 320 128 304
WIRE 256 320 256 304
WIRE -272 352 -272 288
WIRE -272 480 -272 432
FLAG 256 320 Vp
FLAG 128 320 Vn
FLAG 528 -64 Vp
FLAG 368 0 Vp
FLAG 368 192 Vn
FLAG 560 96 CLK
FLAG 416 176 0
FLAG -160 192 Vn
FLAG -160 48 Vp
FLAG -368 208 0
FLAG -272 480 0
FLAG -944 -32 Vp
FLAG -944 240 Vn
FLAG -816 128 0
SYMBOL res 112 208 R0
SYMATTR InstName R2
SYMATTR Value 10k
SYMBOL TCLib\\LM311 512 48 R0
SYMATTR InstName U1
SYMBOL res 512 -48 R0
SYMATTR InstName R4
SYMATTR Value 4k7
SYMBOL TCLib\\TL082 -16 64 R0
SYMATTR InstName U2
SYMBOL res -288 336 R0
SYMATTR InstName R90
SYMATTR Value 10k
SYMBOL res -80 272 R90
WINDOW 0 0 56 VBottom 2
WINDOW 3 32 56 VTop 2
SYMATTR InstName R10
SYMATTR Value 10k
SYMBOL cap -384 112 R0
WINDOW 39 24 84 Left 2
SYMATTR InstName C1
SYMATTR Value 1n
SYMBOL TCLib\\supply -976 144 R0
SYMATTR InstName U3
SYMATTR Value Vp=5
SYMATTR Value2 Vn=5
SYMBOL res 240 208 R0
SYMATTR InstName R1
SYMATTR Value 10k
SYMBOL res -64 -48 R90
WINDOW 0 0 56 VBottom 2
WINDOW 3 32 56 VTop 2
SYMATTR InstName R3
SYMATTR Value 10220
TEXT -256 640 Left 2 ;.step dec param rv 3k2 31k 2
TEXT -240 704 Left 2 !.tran 0 100u 20u
RECTANGLE Normal 848 544 -608 -224 2
