Version 4
SHEET 1 4240 680
WIRE 1200 -192 912 -192
WIRE 1536 -192 1264 -192
WIRE 2128 -192 1840 -192
WIRE 2464 -192 2192 -192
WIRE -128 -160 -160 -160
WIRE 160 -160 144 -160
WIRE 3136 -160 2848 -160
WIRE 3472 -160 3200 -160
WIRE 224 -64 128 -64
WIRE 336 -64 304 -64
WIRE 448 -64 336 -64
WIRE 16 -48 16 -64
WIRE 640 -32 560 -32
WIRE 784 -32 640 -32
WIRE 912 -32 912 -192
WIRE 912 -32 864 -32
WIRE 976 -32 912 -32
WIRE 1120 -32 1056 -32
WIRE 1328 -32 1120 -32
WIRE 1840 -32 1840 -192
WIRE 1840 -32 1792 -32
WIRE 1904 -32 1840 -32
WIRE 2048 -32 1984 -32
WIRE 2256 -32 2048 -32
WIRE 336 -16 336 -64
WIRE 448 0 432 0
WIRE 1536 0 1536 -192
WIRE 1536 0 1440 0
WIRE 1712 0 1712 -32
WIRE 1712 0 1536 0
WIRE 2464 0 2464 -192
WIRE 2464 0 2368 0
WIRE 2720 0 2464 0
WIRE 2848 0 2848 -160
WIRE 2848 0 2800 0
WIRE 2912 0 2848 0
WIRE 3056 0 2992 0
WIRE 3264 0 3056 0
WIRE 1328 32 1280 32
WIRE 2256 32 2208 32
WIRE 3472 32 3472 -160
WIRE 3472 32 3376 32
WIRE 3632 32 3472 32
WIRE 1120 48 1120 -32
WIRE 2048 48 2048 -32
WIRE 432 64 432 0
WIRE 640 64 640 -32
WIRE 640 64 432 64
WIRE 3264 64 3216 64
WIRE 3056 80 3056 0
WIRE 336 96 336 64
WIRE 1120 144 1120 112
WIRE 2048 144 2048 112
WIRE 128 160 128 -64
WIRE 1280 160 1280 32
WIRE 1344 160 1280 160
WIRE 1536 160 1536 0
WIRE 1536 160 1424 160
WIRE 2208 160 2208 32
WIRE 2272 160 2208 160
WIRE 2464 160 2464 0
WIRE 2464 160 2352 160
WIRE 3056 176 3056 144
WIRE 3216 192 3216 64
WIRE 3280 192 3216 192
WIRE 3472 192 3472 32
WIRE 3472 192 3360 192
WIRE 1280 272 1280 240
WIRE 2208 272 2208 240
WIRE 3216 304 3216 272
FLAG 1280 272 0
FLAG 1120 144 0
FLAG 1376 48 V+
FLAG 1376 -48 V-
FLAG 2208 272 0
FLAG 2048 144 0
FLAG 2304 48 V+
FLAG 2304 -48 V-
FLAG 16 -48 0
FLAG -160 -160 V-
FLAG 160 -160 V+
FLAG 3216 304 0
FLAG 3056 176 0
FLAG 3312 80 V+
FLAG 3312 -16 V-
FLAG 496 16 V+
FLAG 496 -80 V-
FLAG 336 96 0
FLAG 128 240 0
FLAG 3632 32 Vo
SYMBOL res 880 -48 R90
WINDOW 0 0 56 VBottom 2
WINDOW 3 32 56 VTop 2
SYMATTR InstName R1
SYMATTR Value {mc{R1,tolR}}
SYMBOL res 1072 -48 R90
WINDOW 0 0 56 VBottom 2
WINDOW 3 32 56 VTop 2
SYMATTR InstName R2
SYMATTR Value {mc{R1,tolR}}
SYMBOL cap 1264 -208 R90
WINDOW 0 0 32 VBottom 2
WINDOW 3 32 32 VTop 2
SYMATTR InstName C1
SYMATTR Value {mc{C,tolC}}
SYMBOL cap 1136 112 R180
WINDOW 0 24 56 Left 2
WINDOW 3 24 8 Left 2
SYMATTR InstName C2
SYMATTR Value {mc{C,tolC}}
SYMBOL TCLib\\TL082 1520 48 M180
SYMATTR InstName U1
SYMBOL res 1440 144 R90
WINDOW 0 0 56 VBottom 2
WINDOW 3 32 56 VTop 2
SYMATTR InstName Ra
SYMATTR Value {mc{17k,tolR}}
SYMBOL res 1296 256 R180
WINDOW 0 36 76 Left 2
WINDOW 3 36 40 Left 2
SYMATTR InstName Rb
SYMATTR Value {mc{10k,tolR}}
SYMBOL res 1808 -48 R90
WINDOW 0 0 56 VBottom 2
WINDOW 3 32 56 VTop 2
SYMATTR InstName R3
SYMATTR Value {mc{R2,tolR}}
SYMBOL res 2000 -48 R90
WINDOW 0 0 56 VBottom 2
WINDOW 3 32 56 VTop 2
SYMATTR InstName R4
SYMATTR Value {mc{R2,tolR}}
SYMBOL cap 2192 -208 R90
WINDOW 0 0 32 VBottom 2
WINDOW 3 32 32 VTop 2
SYMATTR InstName C3
SYMATTR Value {mc{C,tolC}}
SYMBOL cap 2064 112 R180
WINDOW 0 24 56 Left 2
WINDOW 3 24 8 Left 2
SYMATTR InstName C4
SYMATTR Value {mc{C,tolC}}
SYMBOL TCLib\\TL082 2448 48 M180
SYMATTR InstName U2
SYMBOL res 2368 144 R90
WINDOW 0 0 56 VBottom 2
WINDOW 3 32 56 VTop 2
SYMATTR InstName Ra1
SYMATTR Value {mc{10k,tolR}}
SYMBOL res 2224 256 R180
WINDOW 0 36 76 Left 2
WINDOW 3 36 40 Left 2
SYMATTR InstName Rb1
SYMATTR Value {mc{10k,tolR}}
SYMBOL TCLib\\supply -32 -192 R90
SYMATTR InstName U3
SYMBOL res 2816 -16 R90
WINDOW 0 0 56 VBottom 2
WINDOW 3 32 56 VTop 2
SYMATTR InstName R5
SYMATTR Value {mc{R3,tolR}}
SYMBOL res 3008 -16 R90
WINDOW 0 0 56 VBottom 2
WINDOW 3 32 56 VTop 2
SYMATTR InstName R6
SYMATTR Value {mc{R3,tolR}}
SYMBOL cap 3200 -176 R90
WINDOW 0 0 32 VBottom 2
WINDOW 3 32 32 VTop 2
SYMATTR InstName C5
SYMATTR Value {mc{C,tolC}}
SYMBOL cap 3072 144 R180
WINDOW 0 24 56 Left 2
WINDOW 3 24 8 Left 2
SYMATTR InstName C6
SYMATTR Value {mc{C,tolC}}
SYMBOL TCLib\\TL082 3456 80 M180
SYMATTR InstName U4
SYMBOL res 3376 176 R90
WINDOW 0 0 56 VBottom 2
WINDOW 3 32 56 VTop 2
SYMATTR InstName Ra2
SYMATTR Value {mc{10k,tolR}}
SYMBOL res 3232 288 R180
WINDOW 0 36 76 Left 2
WINDOW 3 36 40 Left 2
SYMATTR InstName Rb2
SYMATTR Value {mc{55k,tolR}}
SYMBOL TCLib\\TL082 640 16 M180
SYMATTR InstName U6
SYMBOL res 320 -80 R90
WINDOW 0 0 56 VBottom 2
WINDOW 3 32 56 VTop 2
SYMATTR InstName R9
SYMATTR Value {mc{5k3,tolR}}
SYMBOL res 352 80 R180
WINDOW 0 36 76 Left 2
WINDOW 3 36 40 Left 2
SYMATTR InstName R10
SYMATTR Value {mc{1k,tolR}}
SYMBOL voltage 128 144 R0
WINDOW 123 24 124 Left 2
WINDOW 39 0 0 Left 0
SYMATTR InstName V1
SYMATTR Value ""
SYMATTR Value2 AC 1
TEXT 816 -264 Left 2 ;f0=32k
TEXT 1720 -264 Left 2 ;f0=26k
TEXT 2672 -272 Left 2 ;f0=20k
TEXT 1048 376 Left 2 !.param R1=494 R2=600 R3=791 C=10n tolR=0.01 tolC=0.1
TEXT 1064 424 Left 2 !.step param run 1 50 1
TEXT 1072 472 Left 2 !.ac dec 1000 1k 500k
RECTANGLE Normal 1600 336 704 -320 2
RECTANGLE Normal 2560 336 1664 -320 2
RECTANGLE Normal 3552 352 2624 -320 2
