Version 4
SHEET 1 2592 680
WIRE 768 -160 480 -160
WIRE 1104 -160 832 -160
WIRE 1696 -160 1408 -160
WIRE 2032 -160 1760 -160
WIRE 352 0 48 0
WIRE 480 0 480 -160
WIRE 480 0 432 0
WIRE 544 0 480 0
WIRE 688 0 624 0
WIRE 896 0 688 0
WIRE 1280 0 1216 0
WIRE 1408 0 1408 -160
WIRE 1408 0 1360 0
WIRE 1472 0 1408 0
WIRE 1616 0 1552 0
WIRE 1824 0 1616 0
WIRE 1104 32 1104 -160
WIRE 1104 32 1008 32
WIRE 1216 32 1216 0
WIRE 1216 32 1104 32
WIRE 2032 32 2032 -160
WIRE 2032 32 1936 32
WIRE 2320 32 2032 32
WIRE 2448 32 2400 32
WIRE 2544 32 2448 32
WIRE 896 64 848 64
WIRE 1824 64 1776 64
WIRE 688 80 688 0
WIRE 1616 80 1616 0
WIRE 2448 80 2448 32
WIRE 48 128 48 0
WIRE 688 176 688 144
WIRE 1616 176 1616 144
WIRE 848 192 848 64
WIRE 912 192 848 192
WIRE 1104 192 1104 32
WIRE 1104 192 992 192
WIRE 1776 192 1776 64
WIRE 1840 192 1776 192
WIRE 2032 192 2032 32
WIRE 2032 192 1920 192
WIRE 2448 208 2448 144
WIRE 848 304 848 272
WIRE 1776 304 1776 272
FLAG 48 208 0
FLAG 848 304 0
FLAG 688 176 0
FLAG 944 80 V+
FLAG 944 -16 V-
FLAG 1776 304 0
FLAG 1616 176 0
FLAG 1872 80 V+
FLAG 1872 -16 V-
FLAG 2448 208 0
FLAG 2544 32 Vo
FLAG 1264 -512 0
FLAG 1168 -368 V-
FLAG 1168 -640 V+
SYMBOL voltage 48 112 R0
WINDOW 123 24 124 Left 2
WINDOW 39 0 0 Left 0
SYMATTR InstName V1
SYMATTR Value ""
SYMATTR Value2 AC 1
SYMBOL res 448 -16 R90
WINDOW 0 0 56 VBottom 2
WINDOW 3 32 56 VTop 2
SYMATTR InstName R1
SYMATTR Value 10k
SYMBOL res 640 -16 R90
WINDOW 0 0 56 VBottom 2
WINDOW 3 32 56 VTop 2
SYMATTR InstName R2
SYMATTR Value 6250
SYMBOL cap 832 -176 R90
WINDOW 0 0 32 VBottom 2
WINDOW 3 32 32 VTop 2
SYMATTR InstName C1
SYMATTR Value 1n
SYMBOL cap 704 144 R180
WINDOW 0 24 56 Left 2
WINDOW 3 24 8 Left 2
SYMATTR InstName C2
SYMATTR Value 1n
SYMBOL TCLib\\TL082 1088 80 M180
SYMATTR InstName U1
SYMBOL res 1008 176 R90
WINDOW 0 0 56 VBottom 2
WINDOW 3 32 56 VTop 2
SYMATTR InstName Ra
SYMATTR Value 10k
SYMBOL res 864 288 R180
WINDOW 0 36 76 Left 2
WINDOW 3 36 40 Left 2
SYMATTR InstName Rb
SYMATTR Value 1Meg
SYMBOL res 1376 -16 R90
WINDOW 0 0 56 VBottom 2
WINDOW 3 32 56 VTop 2
SYMATTR InstName R3
SYMATTR Value 10k
SYMBOL res 1568 -16 R90
WINDOW 0 0 56 VBottom 2
WINDOW 3 32 56 VTop 2
SYMATTR InstName R4
SYMATTR Value 2473
SYMBOL cap 1760 -176 R90
WINDOW 0 0 32 VBottom 2
WINDOW 3 32 32 VTop 2
SYMATTR InstName C3
SYMATTR Value 1n
SYMBOL cap 1632 144 R180
WINDOW 0 24 56 Left 2
WINDOW 3 24 8 Left 2
SYMATTR InstName C4
SYMATTR Value 1n
SYMBOL TCLib\\TL082 2016 80 M180
SYMATTR InstName U2
SYMBOL res 1936 176 R90
WINDOW 0 0 56 VBottom 2
WINDOW 3 32 56 VTop 2
SYMATTR InstName Ra1
SYMATTR Value 10k
SYMBOL res 1792 288 R180
WINDOW 0 36 76 Left 2
WINDOW 3 36 40 Left 2
SYMATTR InstName Rb1
SYMATTR Value 1Meg
SYMBOL res 2304 48 R270
WINDOW 0 32 56 VTop 2
WINDOW 3 0 56 VBottom 2
SYMATTR InstName R5
SYMATTR Value 18k
SYMBOL cap 2432 80 R0
SYMATTR InstName C5
SYMATTR Value 1n
SYMBOL TCLib\\supply 1136 -464 R0
SYMATTR InstName U3
TEXT 576 -360 Left 2 !.ac dec 1e4 10 100k
RECTANGLE Normal 1168 368 272 -288 2
RECTANGLE Normal 2128 368 1232 -288 2
RECTANGLE Normal 2512 368 2176 -288 2
